Version 4
SHEET 1 1464 760
WIRE -528 16 -608 16
WIRE -144 16 -528 16
WIRE -528 64 -528 16
WIRE -144 64 -144 16
WIRE -144 64 -160 64
WIRE -96 64 -144 64
WIRE 320 64 240 64
WIRE 416 64 320 64
WIRE 704 128 624 128
WIRE 832 128 704 128
WIRE 912 128 832 128
WIRE 928 128 912 128
WIRE 1344 128 1280 128
WIRE 704 160 704 128
WIRE -96 192 -160 192
WIRE 320 192 240 192
WIRE 416 192 320 192
WIRE 832 240 832 208
WIRE -512 272 -560 272
WIRE 704 272 704 224
WIRE -512 304 -512 272
WIRE 832 352 832 304
WIRE -160 496 -160 192
WIRE -64 496 -160 496
WIRE 192 496 96 496
WIRE 464 496 352 496
WIRE 1344 496 1344 128
WIRE 1344 496 624 496
WIRE -512 512 -640 512
WIRE -512 544 -512 512
FLAG 1344 128 f_out
IOPIN 1344 128 Out
FLAG -160 64 f_in
IOPIN -160 64 In
FLAG -528 144 0
FLAG -512 384 0
FLAG -512 624 0
FLAG -528 16 5MHz
FLAG -560 272 10MHz
FLAG -640 512 12MHz
FLAG 320 64 up
FLAG 320 192 down
FLAG 912 128 Vin_vco
FLAG -160 192 f_VCO/8
FLAG 832 352 0
FLAG 704 272 0
SYMBOL pfd_501 80 128 R0
SYMATTR InstName X1
SYMBOL charge_pump 480 112 R0
SYMATTR InstName X2
SYMBOL VCO_19_16 880 128 R0
SYMATTR InstName X3
SYMBOL freq_div_2 544 496 R0
SYMATTR InstName X5
SYMBOL freq_div_2 272 496 R0
SYMATTR InstName X6
SYMBOL freq_div_2 16 496 R0
SYMATTR InstName X7
SYMBOL voltage -528 48 R0
WINDOW 3 -463 6 Left 2
WINDOW 123 0 0 Left 0
WINDOW 39 0 0 Left 0
WINDOW 0 47 57 Left 2
SYMATTR Value PULSE(0 1.8 10p 10p 10p 100n 200n)
SYMATTR InstName V1
SYMBOL voltage -512 288 R0
WINDOW 3 -458 28 Left 2
WINDOW 123 0 0 Left 0
WINDOW 39 0 0 Left 0
WINDOW 0 45 60 Left 2
SYMATTR Value PULSE(0 1.8 10p 10p 10p 50n 100n)
SYMATTR InstName V2
SYMBOL voltage -512 528 R0
WINDOW 3 -534 26 Left 2
WINDOW 123 0 0 Left 0
WINDOW 39 0 0 Left 0
WINDOW 0 45 61 Left 2
SYMATTR Value PULSE(0 1.8 10p 10p 10p 41.665n 83.33n)
SYMATTR InstName V3
SYMBOL cap 688 160 R0
SYMATTR InstName C1
SYMATTR Value 200p
SYMBOL cap 816 240 R0
SYMATTR InstName C2
SYMATTR Value 500p
SYMBOL res 816 112 R0
SYMATTR InstName R1
SYMATTR Value 500
TEXT 256 744 Left 2 !.tran 5u
TEXT 200 688 Left 2 !.ic V(vin_vco) = 0
