Version 4
SHEET 1 2504 1444
WIRE 1248 -272 -64 -272
WIRE -64 -112 -64 -272
WIRE -16 -112 -64 -112
WIRE 288 -96 224 -96
WIRE 368 -96 288 -96
WIRE 672 -96 528 -96
WIRE 912 -96 832 -96
WIRE -240 -64 -416 -64
WIRE -16 -64 -80 -64
WIRE 912 -64 848 -64
WIRE 1248 -64 1248 -272
WIRE 1248 -64 1152 -64
WIRE 1392 -64 1248 -64
WIRE 1680 -64 1552 -64
WIRE 912 -32 880 -32
WIRE 288 16 288 -96
WIRE 288 16 -64 16
WIRE 528 16 288 16
WIRE -64 96 -64 16
WIRE -16 96 -64 96
WIRE 272 112 224 112
WIRE 576 112 272 112
WIRE 848 112 848 -64
WIRE 848 112 576 112
WIRE -16 144 -64 144
WIRE -800 208 -800 192
WIRE -64 208 -64 144
WIRE 288 208 -64 208
WIRE 272 224 272 112
WIRE 272 224 -64 224
WIRE -64 304 -64 224
WIRE -16 304 -64 304
WIRE 288 320 288 208
WIRE 288 320 224 320
WIRE -16 352 -176 352
WIRE 736 352 736 288
WIRE 576 368 576 112
WIRE 656 368 576 368
WIRE 528 400 528 16
WIRE 656 400 528 400
WIRE 880 416 880 -32
WIRE 880 416 848 416
WIRE -176 432 -176 352
WIRE 400 432 -176 432
WIRE 656 432 528 432
WIRE 656 464 576 464
WIRE -176 528 -176 432
WIRE -16 528 -176 528
WIRE 272 544 224 544
WIRE -16 576 -48 576
WIRE 400 592 400 432
WIRE 880 592 880 416
WIRE 880 592 400 592
WIRE 272 640 272 544
WIRE 272 640 -64 640
WIRE -48 656 -48 576
WIRE 272 656 -48 656
WIRE -64 736 -64 640
WIRE -16 736 -64 736
WIRE 272 752 272 656
WIRE 272 752 224 752
WIRE 576 752 576 464
WIRE 576 752 272 752
WIRE 848 752 576 752
WIRE -16 784 -64 784
WIRE -64 848 -64 784
WIRE 272 848 -64 848
WIRE 528 848 528 432
WIRE 528 848 272 848
WIRE 880 896 880 592
WIRE 976 896 880 896
WIRE 848 928 848 752
WIRE 976 928 848 928
WIRE 1248 928 1216 928
WIRE 1392 928 1248 928
WIRE 1664 928 1552 928
WIRE -240 944 -416 944
WIRE -16 944 -80 944
WIRE 272 960 272 848
WIRE 272 960 224 960
WIRE 352 960 272 960
WIRE 688 960 512 960
WIRE 976 960 848 960
WIRE -16 992 -64 992
WIRE -64 1104 -64 992
WIRE 1248 1104 1248 928
WIRE 1248 1104 -64 1104
WIRE 720 1344 720 1280
FLAG -416 -64 f_clk_in
IOPIN -416 -64 In
FLAG -416 944 f_VCO
IOPIN -416 944 In
FLAG 1680 -64 up
IOPIN 1680 -64 Out
FLAG 1664 928 down
IOPIN 1664 928 Out
FLAG -800 208 0
FLAG -768 1088 0
FLAG 1440 -16 0
FLAG 1024 -16 0
FLAG 720 -48 0
FLAG 416 -48 0
FLAG 96 -32 0
FLAG 96 176 0
FLAG 96 384 0
FLAG 96 608 0
FLAG -192 -16 0
FLAG 96 816 0
FLAG 96 1024 0
FLAG 400 1008 0
FLAG 736 1008 0
FLAG 1088 976 0
FLAG 1440 976 0
FLAG -192 992 0
FLAG -192 -112 vddd
FLAG 96 -160 vddd
FLAG 416 -144 vddd
FLAG 720 -144 vddd
FLAG 96 48 vddd
FLAG 1024 -112 vddd
FLAG 1440 -112 vddd
FLAG 736 288 vddd
FLAG 96 256 vddd
FLAG 96 480 vddd
FLAG 96 688 vddd
FLAG 96 896 vddd
FLAG 400 912 vddd
FLAG 736 912 vddd
FLAG 1088 880 vddd
FLAG -192 896 vddd
FLAG 1440 880 vddd
FLAG 720 1424 0
FLAG 720 1280 vddd
FLAG 736 480 0
SYMBOL nand101 64 -96 R0
SYMATTR InstName X1
SYMBOL nand101 64 112 R0
SYMATTR InstName X2
SYMBOL nand101 64 320 R0
SYMATTR InstName X3
SYMBOL nand101 64 544 R0
SYMATTR InstName X4
SYMBOL nand101 64 752 R0
SYMATTR InstName X5
SYMBOL nand101 64 960 R0
SYMATTR InstName X6
SYMBOL inv101 -192 -64 R0
SYMATTR InstName X7
SYMBOL inv101 -192 944 R0
SYMATTR InstName X8
SYMBOL inv101 416 -96 R0
SYMATTR InstName X9
SYMBOL inv101 720 -96 R0
SYMATTR InstName X10
SYMBOL inv101 400 960 R0
SYMATTR InstName X11
SYMBOL inv101 736 960 R0
SYMATTR InstName X12
SYMBOL nand301 976 -64 R0
SYMATTR InstName X13
SYMBOL nand301 1040 928 R0
SYMATTR InstName X14
SYMBOL inv101 1440 928 R0
SYMATTR InstName X15
SYMBOL nand401 720 400 R0
SYMATTR InstName X16
SYMBOL inv101 1440 -64 R0
SYMATTR InstName X17
SYMBOL voltage -800 96 R0
WINDOW 3 -226 191 Left 2
WINDOW 123 0 0 Left 0
WINDOW 39 0 0 Left 0
SYMATTR Value pulse 0 1 0 100p 100p 5n 10n
SYMATTR InstName V1
SYMBOL voltage -768 992 R0
WINDOW 3 -232 131 Left 2
WINDOW 123 0 0 Left 0
WINDOW 39 0 0 Left 0
SYMATTR Value pulse 0 1 2n 100p 100p 5n 9n
SYMATTR InstName V2
SYMBOL voltage 720 1328 R0
WINDOW 123 0 0 Left 0
WINDOW 39 0 0 Left 0
SYMATTR InstName V3
SYMATTR Value 1.8
TEXT 360 1288 Left 2 !.tran 50n
