Version 4
SHEET 1 6288 680
WIRE 816 -976 816 -992
WIRE 768 -960 752 -960
WIRE 752 -864 752 -960
WIRE 816 -864 816 -880
WIRE 816 -864 752 -864
WIRE 464 -848 464 -880
WIRE 816 -816 816 -864
WIRE 2176 -768 1392 -768
WIRE 2240 -768 2176 -768
WIRE 2528 -768 2496 -768
WIRE 2576 -768 2528 -768
WIRE 816 -656 816 -816
WIRE 640 -576 624 -576
WIRE 736 -576 720 -576
WIRE 768 -576 736 -576
WIRE 624 -544 624 -576
WIRE 816 -416 816 -560
WIRE 816 -416 736 -416
WIRE 1296 -400 1264 -400
WIRE 1584 -400 1552 -400
WIRE 1872 -400 1840 -400
WIRE 2160 -400 2128 -400
WIRE 2448 -400 2416 -400
WIRE 2736 -400 2704 -400
WIRE 816 -384 816 -416
WIRE 736 -304 736 -416
FLAG 624 -576 Vinvco
FLAG 816 -608 0
FLAG 816 -928 VDD
FLAG 816 -816 Vp
FLAG 1072 -512 Vp
FLAG 1072 -288 Vn
FLAG 736 -576 Vn
FLAG 1360 -512 Vp
FLAG 1360 -288 Vn
FLAG 1648 -512 Vp
FLAG 1648 -288 Vn
FLAG 1936 -512 Vp
FLAG 1936 -288 Vn
FLAG 2224 -512 Vp
FLAG 2224 -288 Vn
FLAG 2512 -512 Vp
FLAG 2512 -288 Vn
FLAG 1248 -848 VDD
FLAG 1248 -688 0
FLAG 1200 -880 Vp
FLAG 1200 -656 Vn
FLAG 2528 -768 osc
FLAG 2176 -768 osc_fb
FLAG 1008 -400 osc_fb
FLAG 2736 -400 n1
FLAG 1136 -768 n1
FLAG 816 -992 VDD
IOPIN 816 -992 In
FLAG 816 -384 GND
IOPIN 816 -384 In
FLAG 624 -544 Vinvco
IOPIN 624 -544 In
FLAG 2576 -768 Osc
IOPIN 2576 -768 Out
FLAG 464 -768 0
FLAG 464 -880 VDD
FLAG 736 -304 0
SYMBOL nmos4 768 -656 R0
WINDOW 0 104 24 Right 2
WINDOW 3 179 41 Right 2
WINDOW 123 270 77 Right 2
SYMATTR InstName M7
SYMATTR Value nfet
SYMATTR Value2 l=180n w=360n
SYMBOL pmos4 768 -880 M180
WINDOW 0 88 9 Right 2
WINDOW 3 168 20 Right 2
WINDOW 123 296 90 Right 2
SYMATTR InstName M8
SYMATTR Value pfet
SYMATTR Value2 l=180n w=1800n
SYMBOL res 736 -560 M270
WINDOW 0 32 56 VTop 2
WINDOW 3 0 56 VBottom 2
SYMATTR InstName R1
SYMATTR Value 1
SYMBOL INV_20_10 2272 -832 R0
WINDOW 0 0 0 Invisible 0
SYMATTR InstName U22
SYMBOL CS_inv 1168 -832 R0
SYMATTR InstName X3
SYMBOL CS_inv 2480 -464 R0
SYMATTR InstName X16
SYMBOL CS_inv 2192 -464 R0
SYMATTR InstName X17
SYMBOL CS_inv 1904 -464 R0
SYMATTR InstName X18
SYMBOL CS_inv 1616 -464 R0
SYMATTR InstName X19
SYMBOL CS_inv 1328 -464 R0
SYMATTR InstName X20
SYMBOL CS_inv 1040 -464 R0
SYMATTR InstName X21
SYMBOL voltage 464 -864 R0
WINDOW 123 0 0 Left 0
WINDOW 39 0 0 Left 0
SYMATTR InstName V1
SYMATTR Value 1.8
TEXT 1320 -1056 Left 2 !.lib osu018.lib
